<configuration>
    <input>
        <net-file value="LosAngeles.net.xml"/>
        <route-files value="LosAngeles.rou.xml"/>
        <additional-files value="LosAngeles.poly.xml"/>
    </input>
    <time>
        <begin value="0"/>
        <end value="1000"/>
    </time>
    <output>
        <summary-output value="scenario_logs/LosAngeles/unblocked/summary_output.xml"/>
        <tripinfo-output value="scenario_logs/LosAngeles/unblocked/tripinfo_output.xml"/>
    </output>
</configuration>